L6/1726535/Reguladores.dss
! REGULADORES — gerados de UNREMT
! vreg = 122 V e band = 2 V — AJUSTES TIPICOS, nao de campo.
! kVA = 5000 adotado; a BDGD nao traz a potencia do regulador.
! O ptratio segue a tensao de cada alimentador (TP para 120 V).
New Transformer.REG_349334516_1 phases=1 windings=2 XHL=0.04
~ buses=[segm_349334565.1 segm_349334504.1] conns=[wye wye]
~ kVs=[7.9674 7.9674] kVAs=[5000 5000] %Rs=[0.01 0.01]
~ maxtap=1.10 mintap=0.90 numtaps=32
New RegControl.RC_REG_349334516_1 transformer=REG_349334516_1 winding=2 vreg=122 band=2 ptratio=66.4 delay=15 maxtapchange=1
New Transformer.REG_349334516_2 phases=1 windings=2 XHL=0.04
~ buses=[segm_349334565.2 segm_349334504.2] conns=[wye wye]
~ kVs=[7.9674 7.9674] kVAs=[5000 5000] %Rs=[0.01 0.01]
~ maxtap=1.10 mintap=0.90 numtaps=32
New RegControl.RC_REG_349334516_2 transformer=REG_349334516_2 winding=2 vreg=122 band=2 ptratio=66.4 delay=15 maxtapchange=1
New Transformer.REG_349334516_3 phases=1 windings=2 XHL=0.04
~ buses=[segm_349334565.3 segm_349334504.3] conns=[wye wye]
~ kVs=[7.9674 7.9674] kVAs=[5000 5000] %Rs=[0.01 0.01]
~ maxtap=1.10 mintap=0.90 numtaps=32
New RegControl.RC_REG_349334516_3 transformer=REG_349334516_3 winding=2 vreg=122 band=2 ptratio=66.4 delay=15 maxtapchange=1
New Transformer.REG_349334590_1 phases=1 windings=2 XHL=0.04
~ buses=[segm_349334639.1 segm_349334578.1] conns=[wye wye]
~ kVs=[7.9674 7.9674] kVAs=[5000 5000] %Rs=[0.01 0.01]
~ maxtap=1.10 mintap=0.90 numtaps=32
New RegControl.RC_REG_349334590_1 transformer=REG_349334590_1 winding=2 vreg=122 band=2 ptratio=66.4 delay=15 maxtapchange=1
New Transformer.REG_349334590_2 phases=1 windings=2 XHL=0.04
~ buses=[segm_349334639.2 segm_349334578.2] conns=[wye wye]
~ kVs=[7.9674 7.9674] kVAs=[5000 5000] %Rs=[0.01 0.01]
~ maxtap=1.10 mintap=0.90 numtaps=32
New RegControl.RC_REG_349334590_2 transformer=REG_349334590_2 winding=2 vreg=122 band=2 ptratio=66.4 delay=15 maxtapchange=1
New Transformer.REG_349334590_3 phases=1 windings=2 XHL=0.04
~ buses=[segm_349334639.3 segm_349334578.3] conns=[wye wye]
~ kVs=[7.9674 7.9674] kVAs=[5000 5000] %Rs=[0.01 0.01]
~ maxtap=1.10 mintap=0.90 numtaps=32
New RegControl.RC_REG_349334590_3 transformer=REG_349334590_3 winding=2 vreg=122 band=2 ptratio=66.4 delay=15 maxtapchange=1
New Transformer.REG_349334664_1 phases=1 windings=2 XHL=0.04
~ buses=[segm_349334713.1 segm_349334652.1] conns=[wye wye]
~ kVs=[7.9674 7.9674] kVAs=[5000 5000] %Rs=[0.01 0.01]
~ maxtap=1.10 mintap=0.90 numtaps=32
New RegControl.RC_REG_349334664_1 transformer=REG_349334664_1 winding=2 vreg=122 band=2 ptratio=66.4 delay=15 maxtapchange=1
New Transformer.REG_349334664_2 phases=1 windings=2 XHL=0.04
~ buses=[segm_349334713.2 segm_349334652.2] conns=[wye wye]
~ kVs=[7.9674 7.9674] kVAs=[5000 5000] %Rs=[0.01 0.01]
~ maxtap=1.10 mintap=0.90 numtaps=32
New RegControl.RC_REG_349334664_2 transformer=REG_349334664_2 winding=2 vreg=122 band=2 ptratio=66.4 delay=15 maxtapchange=1
New Transformer.REG_349334664_3 phases=1 windings=2 XHL=0.04
~ buses=[segm_349334713.3 segm_349334652.3] conns=[wye wye]
~ kVs=[7.9674 7.9674] kVAs=[5000 5000] %Rs=[0.01 0.01]
~ maxtap=1.10 mintap=0.90 numtaps=32
New RegControl.RC_REG_349334664_3 transformer=REG_349334664_3 winding=2 vreg=122 band=2 ptratio=66.4 delay=15 maxtapchange=1
New Transformer.REG_349334733_2 phases=1 windings=2 XHL=0.04
~ buses=[segm_486815411.2 segm_486815407.2] conns=[wye wye]
~ kVs=[7.9674 7.9674] kVAs=[5000 5000] %Rs=[0.01 0.01]
~ maxtap=1.10 mintap=0.90 numtaps=32
New RegControl.RC_REG_349334733_2 transformer=REG_349334733_2 winding=2 vreg=122 band=2 ptratio=66.4 delay=15 maxtapchange=1
